Circuit: * Z:\home\frohro\Projects\WWU-VNA\LTSpice-Simulations\VNA2018.asc

Error on line 2 : s1 n005 n008 n007 0 mysw sw
	 Unknown parameter "sw"
Error on line 3 : s2 n006 n011 n007 0 mysw sw
	 Unknown parameter "sw"
Direct Newton iteration for .op point succeeded.

Date: Sat May 05 20:55:24 2018
Total elapsed time: 2.922 seconds.

tnom = 27
temp = 27
method = modified trap
totiter = 714737
traniter = 714734
tranpoints = 340589
accept = 221426
rejected = 119163
matrix size = 17
fillins = 0
solver = Normal
Matrix Compiler1: 678 bytes object code size  1.2/0.8/[0.7]
Matrix Compiler2: 1.10 KB object code size  0.7/0.8/[0.7]

